.SUBCKT inverter_lvs vss vin vdd vout
*.PININFO  vin:I vss:B vdd:B vout:O
*
*.SCALE METER
*.GLOBAL
*
mM1  vdd vin vout vdd cnm25modp  w=4.5u l=3u m=1
mM0  vout vin vss vss cnm25modn  w=4.5u l=3u m=1
.ENDS
